/*--------------------------------*- C++ -*----------------------------------*\
  =========                 |
  \\      /  F ield         | OpenFOAM: The Open Source CFD Toolbox
   \\    /   O peration     | Website:  https://openfoam.org
    \\  /    A nd           | Version:  8
     \\/     M anipulation  |
\*---------------------------------------------------------------------------*/
FoamFile
{
    version     2.0;
    format      ascii;
    class       volScalarField;
    object      T;
}
// * * * * * * * * * * * * * * * * * * * * * * * * * * * * * * * * * * * * * //

dimensions      [0 0 0 1 0 0 0];

internalField   uniform 300;

boundaryField
{
    "(top|top_part|bottom)"
    {
        type            mixedTemperature;
        h               25.0;
        emissivity      0.4;
        Tinf            uniform 300;
        value           uniform 300;
    }
    sides
    {
        type            zeroGradient;
        value           uniform 300;
    }
}


// ************************************************************************* //
